test/test_files/validation_tests/case2736sp_resqlim.m
function mpc = case2736sp_resqlim
%CASE2736SP_RESQLIM

%% MATPOWER Case Format : Version 2
mpc.version = '2';

%%-----  Power Flow Data  -----%%
%% system MVA base
mpc.baseMVA = 100;

%% bus data
%	bus_i	type	Pd	Qd	Gs	Bs	area	Vm	Va	baseKV	zone	Vmax	Vmin	lam_P	lam_Q	mu_Vmax	mu_Vmin
mpc.bus = [
	1	1	0	0	0	0	1	1.08125286	36.8866597	220	1	1.11	0.95	97.9642	0.1737	0.0000	0.0000;
	2	1	0	0	0	0	1	1.08545876	38.6800759	220	1	1.11	0.95	97.5886	0.0592	0.0000	0.0000;
	3	1	0	0	0	0	1	1.06388179	12.65612	220	1	1.11	0.95	110.9086	0.1409	0.0000	0.0000;
	4	1	0	0	0	0	1	1.0701926	32.5845416	220	1	1.11	0.95	100.0063	0.4639	0.0000	0.0000;
	5	1	0	0	0	0	1	1.07022354	32.5837192	220	1	1.11	0.95	100.0073	0.4634	0.0000	0.0000;
	6	1	0	0	0	0	1	1.04682409	21.1874329	220	1	1.11	0.95	104.7833	0.8183	0.0000	0.0000;
	7	1	0	0	0	0	1	1.04695375	21.1971345	220	1	1.11	0.95	104.7745	0.8156	0.0000	0.0000;
	8	1	0	0	0	0	1	1.01067705	25.039027	400	1	1.05	0.95	103.5752	0.3513	0.0000	0.0000;
	9	1	0	0	0	0	1	1.01070411	25.0439657	400	1	1.05	0.95	103.5718	0.3500	0.0000	0.0000;
	10	1	0	0	0	0	1	1.03959397	21.1778484	220	1	1.11	0.95	105.6057	1.0277	0.0000	0.0000;
	11	1	0	0	0	0	1	1.03948011	21.1718183	220	1	1.11	0.95	105.6080	1.0297	0.0000	0.0000;
	12	1	0	0	0	0	1	1.0393987	21.1768059	220	1	1.11	0.95	105.6066	1.0315	0.0000	0.0000;
	13	1	0	0	0	0	1	1.03935289	21.1667984	220	1	1.11	0.95	105.6077	1.0320	0.0000	0.0000;
	14	1	0	0	0	0	1	1.00134053	26.4585262	400	1	1.05	0.95	102.9672	0.6071	0.0000	0.0000;
	15	1	0	0	0	0	1	1.01525528	22.2293055	400	1	1.05	0.95	104.4832	0.0632	0.0000	0.0000;
	16	1	0	0	0	0	1	1.01525528	22.2293055	400	1	1.05	0.95	104.4832	0.0632	0.0000	0.0000;
	17	1	0	0	0	0	1	1.07322063	15.6304639	220	1	1.11	0.95	108.4499	0.1084	0.0000	0.0000;
	18	1	0	0	0	0	1	1.0732809	15.6303637	220	1	1.11	0.95	108.4483	0.1077	0.0000	0.0000;
	19	1	0	0	0	0	1	1.07526472	33.6276048	220	1	1.11	0.95	99.4431	0.3577	0.0000	0.0000;
	20	1	0	0	0	0	1	1.07531187	33.6306006	220	1	1.11	0.95	99.4429	0.3572	0.0000	0.0000;
	21	1	0	0	0	0	1	1.05546984	20.3168459	220	1	1.11	0.95	105.9001	0.5847	0.0000	0.0000;
	22	1	0	0	0	0	1	1.05546984	20.3168459	220	1	1.11	0.95	105.9001	0.5847	0.0000	0.0000;
	23	1	0	0	0	0	1	1.03863063	21.1668549	220	1	1.11	0.95	105.5971	1.0403	0.0000	0.0000;
	24	1	0	0	0	0	1	1.07722079	35.3749249	220	1	1.11	0.95	98.8433	0.2741	0.0000	0.0000;
	25	1	0	0	0	0	1	1.01257971	24.2260766	400	1	1.05	0.95	103.8800	0.3703	0.0000	0.0000;
	26	3	61.358	72.054	0	0	1	1.09091	37.2260908	220	1	1.11	0.95	97.7882	0.0000	1044.8801	0.0000;
	27	2	84.861	122.06	0	0	1	1.09091	38.9711211	220	1	1.11	0.95	97.4519	0.0000	1601.4174	0.0000;
	28	1	49	74	0	0	1	1.02711137	36.029099	400	1	1.05	0.95	98.6073	-0.0008	0.0000	0.0000;
	29	1	49	74	0	0	1	1.02709881	36.0352948	400	1	1.05	0.95	98.6040	-0.0000	0.0000	0.0000;
	30	1	0	0	0	0	1	1.04544975	20.8947707	220	1	1.11	0.95	105.6749	0.8355	0.0000	0.0000;
	31	1	0	0	0	0	1	1.026648	34.5358297	400	1	1.05	0.95	98.8892	-0.0693	0.0000	0.0000;
	32	1	0	0	0	0	1	1.03621878	20.8523427	220	1	1.11	0.95	105.8196	1.0971	0.0000	0.0000;
	33	1	0	0	0	0	1	1.07746859	30.2553242	220	1	1.11	0.95	100.8633	0.2948	0.0000	0.0000;
	34	1	0	0	0	0	1	1.07531529	26.8295404	220	2	1.11	0.95	101.9122	-0.3204	0.0000	0.0000;
	35	1	0	0	0	0	1	1.0774191	27.2840757	220	2	1.11	0.95	102.0744	-0.6743	0.0000	0.0000;
	36	1	0	0	0	0	1	1.08617398	28.2450794	220	2	1.11	0.95	101.3876	-0.8651	0.0000	0.0000;
	37	1	0	0	0	0	1	1.08616184	28.2431652	220	2	1.11	0.95	101.3886	-0.8649	0.0000	0.0000;
	38	1	0	0	0	0	1	1.06297228	25.5935749	220	2	1.11	0.95	102.7618	-0.4427	0.0000	0.0000;
	39	1	0	0	0	0	1	1.10333988	28.6457766	220	2	1.11	0.95	101.1082	-3.0865	18045.9803	0.0000;
	40	1	0	0	0	0	1	1.1032272	28.6462389	220	2	1.11	0.95	101.1098	-3.0744	0.0000	0.0000;
	41	1	0	0	0	0	1	1.01846713	28.8452966	400	2	1.05	0.95	101.1345	-2.0956	0.0000	0.0000;
	42	2	25	0	0	0	1	1.09091	27.3513425	220	2	1.11	0.95	101.8427	-0.1316	0.0000	0.0000;
	43	2	26	0	0	0	1	1.09091	27.369426	220	2	1.11	0.95	101.8368	-0.1325	0.0000	0.0000;
	44	1	25	0	0	0	1	1.01970361	27.8657697	400	2	1.05	0.95	102.0500	-0.0378	0.0000	0.0000;
	45	1	0	0	0	0	1	1.01968095	27.8626746	400	2	1.05	0.95	102.0499	-0.0374	0.0000	0.0000;
	46	1	0	0	0	0	1	1.09987885	28.1433056	220	2	1.11	0.95	101.4510	-2.8780	0.0000	0.0000;
	47	1	0	0	0	0	1	1.03217173	25.4774471	400	2	1.05	0.95	102.2308	-0.8351	0.0000	0.0000;
	48	1	0	0	0	0	1	1.03214174	25.4716003	400	2	1.05	0.95	102.2336	-0.8342	0.0000	0.0000;
	49	1	0	0	0	0	1	1.02685259	27.3391954	400	2	1.05	0.95	102.0681	-0.1569	0.0000	0.0000;
	50	1	0	0	0	0	1	1.07157154	26.6537749	220	2	1.11	0.95	102.0731	-0.4925	0.0000	0.0000;
	51	1	0	0	0	0	1	1.07155077	26.6565995	220	2	1.11	0.95	102.0731	-0.4924	0.0000	0.0000;
	52	1	0	0	0	0	1	1.03262106	28.0825775	400	2	1.05	0.95	101.6773	-0.7629	0.0000	0.0000;
	53	1	0	0	0	0	1	1.03264829	28.0846874	400	2	1.05	0.95	101.6757	-0.7648	0.0000	0.0000;
	54	2	13	0	0	0	1	1.09116	29.264621	220	2	1.11	0.95	100.9266	-1.0086	0.0000	0.0000;
	55	2	13	0	0	0	1	1.09114	29.2610724	220	2	1.11	0.95	100.9250	-1.0101	0.0000	0.0000;
	56	2	13	0	0	0	1	1.04039	29.0157997	400	2	1.05	0.95	101.1741	-1.1458	0.0000	0.0000;
	57	2	26	0	0	0	1	1.04036	29.0122409	400	2	1.05	0.95	101.1759	-1.1461	0.0000	0.0000;
	58	1	89.067	40	0	0	1	1.08737178	26.9129877	220	2	1.11	0.95	102.0281	-0.2262	0.0000	0.0000;
	59	1	0	0	0	0	1	1.08735401	26.914734	220	2	1.11	0.95	102.0268	-0.2267	0.0000	0.0000;
	60	1	0	0	0	0	1	1.09607404	28.0650604	220	2	1.11	0.95	101.4486	-2.4534	0.0000	0.0000;
	61	1	0	0	0	0	1	1.09047212	26.9259815	220	2	1.11	0.95	102.1670	-0.6982	0.0000	0.0000;
	62	1	0	0	0	0	1	1.09045096	26.9230217	220	2	1.11	0.95	102.1674	-0.6941	0.0000	0.0000;
	63	1	0	0	0	0	1	1.04297595	27.9334499	400	2	1.05	0.95	101.4167	-1.0744	0.0000	0.0000;
	64	1	0	0	0	0	1	1.0429274	27.9217602	400	2	1.05	0.95	101.4211	-1.0730	0.0000	0.0000;
	65	1	0	0	0	0	1	1.07945663	27.1607698	220	2	1.11	0.95	101.8675	-0.6568	0.0000	0.0000;
	66	1	0	0	0	0	1	1.08096145	27.326864	220	2	1.11	0.95	101.7568	-0.6842	0.0000	0.0000;
	67	1	0	0	0	0	1	1.07221834	27.3755441	220	2	1.11	0.95	101.7225	-0.4651	0.0000	0.0000;
	68	1	0	0	0	0	1	1.08706033	32.4532293	220	3	1.11	0.95	99.8077	-0.3688	0.0000	0.0000;
	69	1	10.327	0	0	0	1	1.09171443	28.9845216	220	3	1.11	0.95	101.2532	-0.5368	0.0000	0.0000;
	70	1	8.032	3.714	0	0	1	1.09156009	28.9914578	220	3	1.11	0.95	101.2506	-0.5330	0.0000	0.0000;
	71	1	0	0	0	0	1	1.08616705	32.1735343	220	3	1.11	0.95	99.5961	0.0929	0.0000	0.0000;
	72	1	0	0	0	0	1	1.08622551	32.1855159	220	3	1.11	0.95	99.5928	0.0917	0.0000	0.0000;
	73	1	0	0	0	0	1	1.08711663	31.8604124	220	3	1.11	0.95	99.7104	0.0192	0.0000	0.0000;
	74	1	0	0	0	0	1	1.0870942	31.8555337	220	3	1.11	0.95	99.7113	0.0193	0.0000	0.0000;
	75	1	0	0	0	0	1	1.08383513	30.5765586	220	3	1.11	0.95	100.6839	0.1752	0.0000	0.0000;
	76	1	0	0	0	0	1	1.08371337	30.5693903	220	3	1.11	0.95	100.6881	0.1774	0.0000	0.0000;
	77	2	27	70	0	0	1	1.09091	32.9891372	220	3	1.11	0.95	99.2188	0.0000	0.0000	0.0000;
	78	2	18.7	42	0	0	1	1.09091	33.0142482	220	3	1.11	0.95	99.2865	0.0000	0.0000	0.0000;
	79	1	4.934	0.817	0	0	1	1.07981829	31.684511	220	3	1.11	0.95	100.0821	0.2170	0.0000	0.0000;
	80	1	0	0	0	0	1	1.079832	31.6856878	220	3	1.11	0.95	100.0813	0.2168	0.0000	0.0000;
	81	1	18	57	0	0	1	1.02214153	31.9876076	400	3	1.05	0.95	99.4311	-0.0467	0.0000	0.0000;
	82	1	0	0	0	0	1	1.08272608	30.9106828	220	3	1.11	0.95	99.9377	-0.6237	0.0000	0.0000;
	83	1	0	0	0	0	1	1.08748267	31.3713671	220	3	1.11	0.95	100.0804	0.0223	0.0000	0.0000;
	84	1	0	0	0	0	1	1.08748783	31.376502	220	3	1.11	0.95	100.0786	0.0222	0.0000	0.0000;
	85	1	44.864	-6.4	0	0	1	1.08843276	32.4355319	220	3	1.11	0.95	99.7311	-0.3991	0.0000	0.0000;
	86	1	0	0	0	0	1	1.08841653	32.4301003	220	3	1.11	0.95	99.7331	-0.3985	0.0000	0.0000;
	87	1	0	0	0	0	1	1.08393604	31.6647323	220	3	1.11	0.95	99.8837	0.1014	0.0000	0.0000;
	88	1	0	0	0	0	1	1.08391354	31.6705268	220	3	1.11	0.95	99.8819	0.1022	0.0000	0.0000;
	89	1	0	0	0	0	1	1.08932565	32.9059342	220	3	1.11	0.95	99.5000	-0.4139	0.0000	0.0000;
	90	1	0	0	0	0	1	1.08932806	32.9013337	220	3	1.11	0.95	99.5022	-0.4161	0.0000	0.0000;
	91	1	0	0	0	0	1	1.03179716	34.1190536	400	3	1.05	0.95	99.2147	-0.2518	0.0000	0.0000;
	92	1	0	0	0	0	1	1.03179487	34.1172321	400	3	1.05	0.95	99.2150	-0.2518	0.0000	0.0000;
	93	1	0	0	0	0	1	1.08488841	31.2488064	220	3	1.11	0.95	100.0665	0.0637	0.0000	0.0000;
	94	1	0	0	0	0	1	1.08488919	31.2442397	220	3	1.11	0.95	100.0682	0.0640	0.0000	0.0000;
	95	1	0	0	0	0	1	1.08474618	31.4520941	220	3	1.11	0.95	100.0032	-0.1863	0.0000	0.0000;
	96	1	0	0	0	0	1	1.08474514	31.4493655	220	3	1.11	0.95	100.0027	-0.1888	0.0000	0.0000;
	97	1	12.49	3.696	0	0	1	1.08923067	32.2533314	220	3	1.11	0.95	99.6560	-0.2413	0.0000	0.0000;
	98	1	17.327	6.126	0	0	1	1.08922016	32.2466351	220	3	1.11	0.95	99.6584	-0.2434	0.0000	0.0000;
	99	1	0	0	0	0	1	1.09176449	29.0090486	220	3	1.11	0.95	101.2403	-0.5372	0.0000	0.0000;
	100	1	0	0	0	0	1	1.09176951	29.0088903	220	3	1.11	0.95	101.2400	-0.5362	0.0000	0.0000;
	101	1	0	0	0	0	1	1.07664078	30.1963565	220	3	1.11	0.95	100.9840	0.3400	0.0000	0.0000;
	102	1	0	0	0	0	1	1.07660607	30.1967215	220	3	1.11	0.95	100.9833	0.3405	0.0000	0.0000;
	103	2	14	40	0	0	1	1.08905	31.3470233	220	3	1.11	0.95	100.1083	0.0000	0.0000	0.0000;
	104	2	0	0	0	0	1	1.08898671	31.3193789	220	3	1.11	0.95	100.1174	0.0013	0.0000	0.0000;
	105	2	7	18	0	0	1	1.0875	31.7343306	220	3	1.11	0.95	99.8094	0.0000	0.0000	0.0000;
	106	2	0	0	0	0	1	1.08740172	31.7321109	220	3	1.11	0.95	99.8116	0.0000	0.0000	0.0000;
	107	1	0	13.892	0	0	1	1.08893191	31.6884734	220	3	1.11	0.95	99.9190	-0.5043	0.0000	0.0000;
	108	1	73.779	8.097	0	0	1	1.08896134	31.6785464	220	3	1.11	0.95	99.9214	-0.5078	0.0000	0.0000;
	109	1	0	0	0	0	1	1.08276009	30.9364052	220	3	1.11	0.95	100.6245	0.0315	0.0000	0.0000;
	110	1	0	0	0	0	1	1.07590158	31.5704152	220	3	1.11	0.95	100.2389	0.3415	0.0000	0.0000;
	111	1	0	0	0	0	1	1.07592699	31.5710259	220	3	1.11	0.95	100.2383	0.3411	0.0000	0.0000;
	112	1	0	0	0	0	1	1.08067368	31.7681422	220	3	1.11	0.95	100.0151	0.1993	0.0000	0.0000;
	113	1	0	0	0	0	1	1.08074114	31.7773918	220	3	1.11	0.95	100.0113	0.1982	0.0000	0.0000;
	114	1	0	0	0	0	1	1.03058242	31.0953948	400	3	1.05	0.95	100.0335	-0.6552	0.0000	0.0000;
	115	2	0	0	0	0	1	1.08991929	32.64575	220	3	1.11	0.95	99.3961	-0.0492	0.0000	0.0000;
	116	1	8	15	0	0	1	1.08990617	32.6484716	220	3	1.11	0.95	99.3969	-0.0498	0.0000	0.0000;
	117	2	5.5	10	0	0	1	1.08788	31.7553087	220	3	1.11	0.95	100.0549	-0.0505	0.0000	0.0000;
	118	1	0	0	0	0	1	1.08790156	31.746186	220	3	1.11	0.95	100.0569	-0.0515	0.0000	0.0000;
	119	1	0	0	0	0	1	1.04361831	28.7683164	400	3	1.05	0.95	101.1591	-1.1087	0.0000	0.0000;
	120	1	0	0	0	0	1	1.04364824	28.7732252	400	3	1.05	0.95	101.1569	-1.1097	0.0000	0.0000;
	121	1	0	0	0	0	1	1.03912593	31.2613856	400	3	1.05	0.95	99.9752	-1.1326	0.0000	0.0000;
	122	1	0	0	0	0	1	1.03913825	31.2667439	400	3	1.05	0.95	99.9734	-1.1353	8588.8847	0.0000;
	123	1	0	0	0	0	1	1.08200985	30.8702117	220	3	1.11	0.95	100.7429	0.0437	0.0000	0.0000;
	124	1	11	17.5	0	0	1	1.09093574	32.8108967	220	3	1.11	0.95	99.3793	-0.0039	0.0000	0.0000;
	125	2	41.353	61.2	0	0	1	1.09091	32.8281383	220	3	1.11	0.95	99.3738	0.0000	0.0000	0.0000;
	126	2	14	33	0	0	1	1.02511	31.5064636	400	3	1.05	0.95	99.7881	-0.2925	0.0000	0.0000;
	127	1	0	0	0	0	1	1.02510745	31.506929	400	3	1.05	0.95	99.7881	-0.2933	0.0000	0.0000;
	128	1	0	0	0	0	1	1.0879993	32.3225121	220	3	1.11	0.95	99.7900	-0.3859	0.0000	0.0000;
	129	1	0	0	0	0	1	1.0879809	32.3246658	220	3	1.11	0.95	99.7883	-0.3854	0.0000	0.0000;
	130	1	0	0	0	0	1	1.08856894	32.5523698	220	3	1.11	0.95	99.6716	-0.3775	0.0000	0.0000;
	131	2	1.5	9	0	0	1	1.08591	30.9435858	220	3	1.11	0.95	100.5080	0.1314	0.0000	0.0000;
	132	2	0	0	0	0	1	1.08374552	30.5691604	220	3	1.11	0.95	100.6881	0.1766	0.0000	0.0000;
	133	2	11.215	8.3	0	0	1	1.09091	29.1284245	220	4	1.11	0.95	101.2167	0.0000	1024.1353	0.0000;
	134	2	10.333	7.7	0	0	1	1.09091	29.1252358	220	4	1.11	0.95	101.2175	0.0022	0.0000	0.0000;
	135	1	0	0	0	0	1	1.08114033	24.5797956	220	4	1.11	0.95	100.9562	-2.0325	0.0000	0.0000;
	136	1	0	0	0	0	1	1.08462505	25.4102554	220	4	1.11	0.95	100.8377	-1.3233	0.0000	0.0000;
	137	1	0	0	0	0	1	1.0000273	25.246961	400	4	1.05	0.95	101.9525	0.0152	0.0000	0.0000;
	138	1	0	0	0	0	1	1.00003793	25.2470836	400	4	1.05	0.95	101.9534	0.0152	0.0000	0.0000;
	139	1	0	0	0	0	1	1.0756114	17.9657226	220	4	1.11	0.95	108.0210	0.2680	0.0000	0.0000;
	140	1	0	0	0	0	1	1.07490196	13.4149948	220	4	1.11	0.95	110.4893	0.1754	0.0000	0.0000;
	141	1	0	0	0	0	1	1.07490196	13.4149948	220	4	1.11	0.95	110.4893	0.1754	0.0000	0.0000;
	142	1	0	0	0	0	1	1.07865169	15.4619584	220	4	1.11	0.95	108.7946	0.2311	0.0000	0.0000;
	143	1	0	0	0	0	1	1.07425516	23.2962395	220	4	1.11	0.95	101.6440	-1.1967	0.0000	0.0000;
	144	1	0	0	0	0	1	1.07425516	23.2962395	220	4	1.11	0.95	101.6440	-1.1967	0.0000	0.0000;
	145	2	0	0	0	0	1	1.08965015	25.6504227	220	4	1.11	0.95	103.0118	0.0224	0.0000	0.0000;
	146	2	0	0	0	0	1	1.08964271	25.6496424	220	4	1.11	0.95	103.0087	0.0234	0.0000	0.0000;
	147	2	25.553	12.9	0	0	1	1.08582	15.8275399	220	4	1.11	0.95	108.8237	0.0000	137.4001	0.0000;
	148	1	0	0	0	0	1	1.08579905	15.8318282	220	4	1.11	0.95	108.8222	0.0012	0.0000	0.0000;
	149	2	11	12	0	0	1	1.02501	17.067179	400	4	1.05	0.95	108.5541	-0.1626	0.0000	0.0000;
	150	2	11.922	13.7	0	0	1	1.025	17.0684656	400	4	1.05	0.95	108.5538	-0.1620	0.0000	0.0000;
	151	1	0	0	0	0	1	1.05564031	17.5284899	220	4	1.11	0.95	108.6543	0.9181	0.0000	0.0000;
	152	1	0	0	0	0	1	1.08104689	19.8588358	220	4	1.11	0.95	105.8110	0.2418	0.0000	0.0000;
	153	1	0	0	0	0	1	1.08102626	19.8540331	220	4	1.11	0.95	105.8119	0.2429	0.0000	0.0000;
	154	2	19.475	64.3	0	0	1	1.09091	27.5511027	220	4	1.11	0.95	100.2380	-0.0784	0.0000	0.0000;
	155	2	16	33	0	0	1	1.09091	27.5430188	220	4	1.11	0.95	100.2439	-0.0748	0.0000	0.0000;
	156	1	0	0	0	0	1	1.00130798	27.131716	400	4	1.05	0.95	100.5569	-0.0001	0.0000	0.0000;
	157	1	10	25	0	0	1	1.0012906	27.1375073	400	4	1.05	0.95	100.5542	0.0000	0.0000	0.0000;
	158	1	0	0	0	0	1	1.07394733	13.4545244	220	4	1.11	0.95	110.3861	0.1678	0.0000	0.0000;
	159	1	0	0	0	0	1	1.07394733	13.4545244	220	4	1.11	0.95	110.3861	0.1678	0.0000	0.0000;
	160	1	0	0	0	0	1	1.00391883	25.2567698	400	4	1.05	0.95	101.9142	0.0037	0.0000	0.0000;
	161	1	0	0	0	0	1	1.00704428	26.4074245	400	4	1.05	0.95	101.4418	-0.0330	0.0000	0.0000;
	162	1	0	0	0	0	1	1.0070328	26.4031698	400	4	1.05	0.95	101.4436	-0.0331	0.0000	0.0000;
	163	2	5.54	2.93	0	0	1	1.09091	25.4969878	220	4	1.11	0.95	103.0649	0.0000	332.7039	0.0000;
	164	2	18.255	11.5	0	0	1	1.09091	25.4887352	220	4	1.11	0.95	103.0713	0.0000	1279.9799	0.0000;
	165	1	0	0	0	0	1	1.09091	25.4887352	220	4	1.11	0.95	103.0713	0.0000	0.0000	0.0000;
	166	1	0	0	0	0	1	1.07456057	13.5005152	220	4	1.11	0.95	110.8567	0.0398	0.0000	0.0000;
	167	1	0	0	0	0	1	1.0740253	13.2793661	220	4	1.11	0.95	110.5522	0.1850	0.0000	0.0000;
	168	1	0	0	0	0	1	1.07565218	16.6777957	220	4	1.11	0.95	108.8217	0.1748	0.0000	0.0000;
	169	1	0	0	0	0	1	1.07564344	16.6694251	220	4	1.11	0.95	108.8244	0.1745	0.0000	0.0000;
	170	1	0	0	0	0	1	1.01066012	16.1144193	400	4	1.05	0.95	108.9582	0.2096	0.0000	0.0000;
	171	1	0	0	0	0	1	1.01066012	16.1144193	400	4	1.05	0.95	108.9582	0.2096	0.0000	0.0000;
	172	1	0	0	0	0	1	1.05956027	20.2043865	220	4	1.11	0.95	106.2796	0.8193	0.0000	0.0000;
	173	1	0	0	0	0	1	1.05955774	20.2107186	220	4	1.11	0.95	106.2773	0.8197	0.0000	0.0000;
	174	1	0	0	0	0	1	1.06950207	20.3418064	220	4	1.11	0.95	105.2017	0.4016	0.0000	0.0000;
	175	1	0	0	0	0	1	1.07987521	24.8412539	220	4	1.11	0.95	100.9532	-1.9153	0.0000	0.0000;
	176	1	0	0	0	0	1	1.0798782	24.85041	220	4	1.11	0.95	100.9503	-1.9197	0.0000	0.0000;
	177	1	0	0	0	0	1	1.07934662	26.1799167	220	4	1.11	0.95	100.4934	-2.2064	0.0000	0.0000;
	178	1	0	0	0	0	1	1.07934662	26.1799167	220	4	1.11	0.95	100.4934	-2.2064	0.0000	0.0000;
	179	2	3.13	1.5	0	0	1	1.09091	21.1627428	220	4	1.11	0.95	105.1553	0.0000	0.0000	0.0000;
	180	1	0	0	0	0	1	1.05707128	19.2430017	220	4	1.11	0.95	106.7210	0.8008	0.0000	0.0000;
	181	1	0	0	0	0	1	1.05286646	18.2211345	220	5	1.11	0.95	107.4384	0.2064	0.0000	0.0000;
	182	1	0	0	0	0	1	1.08304646	15.1877748	220	5	1.11	0.95	108.8386	-0.4811	0.0000	0.0000;
	183	1	0	0	0	0	1	1.02989421	16.2824606	400	5	1.05	0.95	108.4907	-0.4744	0.0000	0.0000;
	184	1	0	0	0	0	1	1.0299138	16.2809045	400	5	1.05	0.95	108.4921	-0.4746	0.0000	0.0000;
	185	1	0	0	0	0	1	1.01953765	17.9514663	400	5	1.05	0.95	107.5507	0.1630	0.0000	0.0000;
	186	1	0	0	0	0	1	1.01955952	17.9485674	400	5	1.05	0.95	107.5529	0.1627	0.0000	0.0000;
	187	1	0	0	0	0	1	1.06404547	14.368381	220	5	1.11	0.95	109.3264	0.2353	0.0000	0.0000;
	188	1	0	0	0	0	1	1.06409226	14.3663277	220	5	1.11	0.95	109.3271	0.2342	0.0000	0.0000;
	189	1	0	0	0	0	1	1.05519892	18.5789532	220	5	1.11	0.95	107.5941	0.3848	0.0000	0.0000;
	190	1	0	0	0	0	1	1.05515888	18.5711404	220	5	1.11	0.95	107.5949	0.3844	0.0000	0.0000;
	191	1	0	0	0	0	1	0.999616874	18.7408793	400	5	1.05	0.95	106.7351	0.4434	0.0000	0.0000;
	192	1	0	0	0	0	1	1.05699061	18.9238517	220	5	1.11	0.95	107.1996	0.2301	0.0000	0.0000;
	193	1	0	0	0	0	1	1.05696686	18.9300509	220	5	1.11	0.95	107.1982	0.2309	0.0000	0.0000;
	194	1	0	0	0	0	1	1.01819143	16.3390075	400	5	1.05	0.95	108.4815	0.3003	0.0000	0.0000;
	195	1	0	0	0	0	1	1.01816712	16.3350163	400	5	1.05	0.95	108.4841	0.3010	0.0000	0.0000;
	196	1	0	0	0	0	1	1.05382966	13.9101064	220	5	1.11	0.95	109.8816	0.5588	0.0000	0.0000;
	197	1	0	0	0	0	1	1.0538494	13.909054	220	5	1.11	0.95	109.8811	0.5586	0.0000	0.0000;
	198	1	0	0	0	-117	1	1.02197812	17.2393807	400	5	1.05	0.95	107.8538	-0.3758	0.0000	0.0000;
	199	1	0	0	0	0	1	1.02202212	17.2353799	400	5	1.05	0.95	107.8567	-0.3766	0.0000	0.0000;
	200	1	0	0	0	0	1	1.04743286	17.4474415	220	5	1.11	0.95	108.4342	0.6220	0.0000	0.0000;
...
];

%% generator data
%	bus	Pg	Qg	Qmax	Qmin	Vg	mBase	status	Pmax	Pmin	Pc1	Pc2	Qc1min	Qc1max	Qc2min	Qc2max	ramp_agc	ramp_10	ramp_30	ramp_q	apf	mu_Pmax	mu_Pmin	mu_Qmax	mu_Qmin
mpc.gen = [
	17	0	0	120	-22	1.07106	241.9	0	210	140	0	0	0	0	0	0	0	0	0	0	0	0.0000	0.0000	0.0000	0.0000;
	17	0	0	120	-22	1.07106	233.2	0	200	140	0	0	0	0	0	0	0	0	0	0	0	0.0000	0.0000	0.0000	0.0000;
	26	369.794261	70.4170241	190	-19	1.09091	415.9	1	370	290	0	0	0	0	0	0	0	0	0	0	0	21.6882	0.0000	0.0000	0.0000;
	27	360	54.0436594	190	-19	1.09091	407.1	1	360	290	0	0	0	0	0	0	0	0	0	0	0	21.3519	0.0000	0.0000	0.0000;
	27	360	54.0436594	190	-19	1.09091	407.1	1	360	290	0	0	0	0	0	0	0	0	0	0	0	21.3519	0.0000	0.0000	0.0000;
	27	370	54.0436594	190	-19	1.09091	415.9	1	370	290	0	0	0	0	0	0	0	0	0	0	0	21.3519	0.0000	0.0000	0.0000;
	26	370	70.4170241	190	-19	1.09091	415.9	1	370	290	0	0	0	0	0	0	0	0	0	0	0	21.6882	0.0000	0.0000	0.0000;
	28	378.98976	-19	190	-19	1.02665	415.9	1	370	290	0	0	0	0	0	0	0	0	0	0	0	22.5073	0.0000	0.0000	0.0008;
	28	0	0	190	-19	1.02665	415.9	0	370	290	0	0	0	0	0	0	0	0	0	0	0	0.0000	0.0000	0.0000	0.0000;
	28	370	-19	190	-19	1.02665	415.9	1	370	290	0	0	0	0	0	0	0	0	0	0	0	22.5073	0.0000	0.0000	0.0008;
	29	0	0	190	-19	1.02665	415.9	0	370	290	0	0	0	0	0	0	0	0	0	0	0	0.0000	0.0000	0.0000	0.0000;
	29	370	-19	190	-19	1.02665	415.9	1	370	290	0	0	0	0	0	0	0	0	0	0	0	22.5040	0.0000	0.0000	0.0000;
	29	370	-19	190	-19	1.02665	415.9	1	370	290	0	0	0	0	0	0	0	0	0	0	0	22.5040	0.0000	0.0000	0.0000;
	42	130	-9.38759159	135	-34	1.09091	253.9	1	215	130	0	0	0	0	0	0	0	0	0	0	0	0.0000	0.2073	0.0000	0.1316;
	42	0	0	130	-34	1.09091	242.7	0	205	135	0	0	0	0	0	0	0	0	0	0	0	0.0000	0.0000	0.0000	0.0000;
	42	110	-7.93123607	145	-34	1.09091	267.7	1	225	110	0	0	0	0	0	0	0	0	0	0	0	0.0000	0.2073	0.0000	0.1316;
	43	120	-10.9010873	145	-34	1.09091	267.7	1	225	120	0	0	0	0	0	0	0	0	0	0	0	0.0000	0.2132	0.0000	0.1325;
	43	130	-10.9010873	145	-34	1.09091	267.7	1	225	130	0	0	0	0	0	0	0	0	0	0	0	0.0000	0.2132	0.0000	0.1325;
	43	0	0	130	-34	1.09091	242.7	0	205	135	0	0	0	0	0	0	0	0	0	0	0	0.0000	0.0000	0.0000	0.0000;
	44	433.768	-47	363	-47	1.01857	646.5	1	535	255	0	0	0	0	0	0	0	0	0	0	0	0.0000	0.0000	0.0000	0.0378;
	44	0	0	348	-100	1.01857	659.3	0	560	250	0	0	0	0	0	0	0	0	0	0	0	0.0000	0.0000	0.0000	0.0000;
	54	129	8.42822123	104	-1	1.09116	247.9	1	225	129	0	0	0	0	0	0	0	0	0	0	0	0.0000	4.4234	0.0000	1.0086;
	55	129	-8.12398206	130	-16	1.09114	259.9	1	225	129	0	0	0	0	0	0	0	0	0	0	0	0.0000	4.4250	0.0000	1.0101;
	54	0	0	130	-16	1.09116	259.9	0	225	129	0	0	0	0	0	0	0	0	0	0	0	0.0000	0.0000	0.0000	0.0000;
	56	129	-14.2575907	130	-16	1.04039	259.9	1	225	129	0	0	0	0	0	0	0	0	0	0	0	0.0000	4.1759	0.0000	1.1458;
	57	129	-6.98646992	130	-16	1.04036	259.9	1	225	129	0	0	0	0	0	0	0	0	0	0	0	0.0000	4.1741	0.0000	1.1461;
	57	0	0	104	-1	1.04036	247.9	0	225	129	0	0	0	0	0	0	0	0	0	0	0	0.0000	0.0000	0.0000	0.0000;
	57	129	-6.98646992	130	-16	1.04036	259.9	1	225	129	0	0	0	0	0	0	0	0	0	0	0	0.0000	4.1741	0.0000	1.1461;
	58	48.1	30	30	0	1.08754	66.5	1	48.1	48.1	0	0	0	0	0	0	0	0	0	0	0	102.0281	0.0000	0.0000	0.2262;
	77	225	56.1753739	123	-15	1.09091	256.4	1	225	140	0	0	0	0	0	0	0	0	0	0	0	3.9088	0.0000	0.0000	0.0000;
	77	225	56.1753739	123	-15	1.09091	256.4	1	225	140	0	0	0	0	0	0	0	0	0	0	0	3.9088	0.0000	0.0000	0.0000;
	78	0	0	123	-15	1.09091	252	0	220	140	0	0	0	0	0	0	0	0	0	0	0	0.0000	0.0000	0.0000	0.0000;
	78	225	13.2089678	123	-15	1.09091	256.4	1	225	140	0	0	0	0	0	0	0	0	0	0	0	3.9765	0.0000	0.0000	0.0000;
	78	225	13.2089678	123	-15	1.09091	256.4	1	225	140	0	0	0	0	0	0	0	0	0	0	0	3.9765	0.0000	0.0000	0.0000;
	81	380	-31	232	-31	1.02168	445.2	1	380	220	0	0	0	0	0	0	0	0	0	0	0	9.4011	0.0000	0.0000	0.0467;
	81	0	0	228	-30	1.02168	434.6	0	370	220	0	0	0	0	0	0	0	0	0	0	0	0.0000	0.0000	0.0000	0.0000;
	97	9	1	1	0	1.08955	12	1	9	9	0	0	0	0	0	0	0	0	0	0	0	99.6560	0.0000	0.0000	0.2413;
	97	6	1	1	0	1.08955	6.1	1	6	6	0	0	0	0	0	0	0	0	0	0	0	99.6560	0.0000	0.0000	0.2413;
	103	225	106.847992	123	-15	1.08905	256.4	1	225	134	0	0	0	0	0	0	0	0	0	0	0	7.3283	0.0000	0.0000	0.0000;
	104	0	0	123	-15	1.08898	256.4	0	225	134	0	0	0	0	0	0	0	0	0	0	0	0.0000	0.0000	0.0000	0.0000;
	105	120	72.8480801	80	-2	1.0875	144.2	1	120	79	0	0	0	0	0	0	0	0	0	0	0	5.7194	0.0000	0.0000	0.0000;
	106	0	0	80	-2	1.0874	144.2	0	120	79	0	0	0	0	0	0	0	0	0	0	0	0.0000	0.0000	0.0000	0.0000;
	115	0	0	90	-20	1.08993	150	0	120	90	0	0	0	0	0	0	0	0	0	0	0	0.0000	0.0000	0.0000	0.0000;
	116	120	-2	82	-2	1.08992	145.3	1	120	70	0	0	0	0	0	0	0	0	0	0	0	2.2769	0.0000	0.0000	0.0498;
	117	110	0.775807932	40	0	1.08788	117	1	110	80	0	0	0	0	0	0	0	0	0	0	0	0.5349	0.0000	0.0000	0.0505;
	124	215	-35	135	-35	1.09093	253.9	1	215	160	0	0	0	0	0	0	0	0	0	0	0	8.2193	0.0000	0.0000	0.0039;
	125	225	51.6491526	140	-35	1.09091	265	1	225	140	0	0	0	0	0	0	0	0	0	0	0	8.2138	0.0000	0.0000	0.0000;
	125	215	49.1734625	135	-35	1.09091	253.9	1	215	160	0	0	0	0	0	0	0	0	0	0	0	8.2138	0.0000	0.0000	0.0000;
	126	225	-39.4370257	140	-40	1.02511	265	1	225	140	0	0	0	0	0	0	0	0	0	0	0	8.6281	0.0000	0.0000	0.2925;
	126	0	0	137	-40	1.02511	259.2	0	220	160	0	0	0	0	0	0	0	0	0	0	0	0.0000	0.0000	0.0000	0.0000;
	131	125	28.1683974	40	-38	1.08591	131.2	1	125	0	0	0	0	0	0	0	0	0	0	0	0	100.4980	0.0000	0.1314	0.0000;
	131	0	0	40	-38	1.08591	131.2	0	125	0	0	0	0	0	0	0	0	0	0	0	0	0.0000	0.0000	0.0000	0.0000;
	132	0	0	40	-38	1.08371	131.2	0	125	0	0	0	0	0	0	0	0	0	0	0	0	0.0000	0.0000	0.0000	0.0000;
	132	0	0	40	-38	1.08371	131.2	0	125	0	0	0	0	0	0	0	0	0	0	0	0	0.0000	0.0000	0.0000	0.0000;
	133	0	0	90	0	1.09091	150	0	120	100	0	0	0	0	0	0	0	0	0	0	0	0.0000	0.0000	0.0000	0.0000;
	133	120	34.1590969	90	0	1.09091	150	1	120	100	0	0	0	0	0	0	0	0	0	0	0	8.7867	0.0000	0.0000	0.0000;
	134	120	47.6725643	90	0	1.09091	150	1	120	100	0	0	0	0	0	0	0	0	0	0	0	8.7875	0.0000	0.0022	0.0000;
	145	0	0	12	0	1.08954	51.4	0	50	30	0	0	0	0	0	0	0	0	0	0	0	0.0000	0.0000	0.0000	0.0000;
	145	0	0	12	0	1.08954	51.4	0	50	30	0	0	0	0	0	0	0	0	0	0	0	0.0000	0.0000	0.0000	0.0000;
	146	0	0	90	0	1.08953	150	0	120	90	0	0	0	0	0	0	0	0	0	0	0	0.0000	0.0000	0.0000	0.0000;
	147	0	0	149	-48	1.08582	267.4	0	222	90	0	0	0	0	0	0	0	0	0	0	0	0.0000	0.0000	0.0000	0.0000;
	147	0	0	149	-48	1.08582	253.4	0	205	135	0	0	0	0	0	0	0	0	0	0	0	0.0000	0.0000	0.0000	0.0000;
	147	0	0	149	-48	1.08582	253.4	0	205	135	0	0	0	0	0	0	0	0	0	0	0	0.0000	0.0000	0.0000	0.0000;
	147	90	76.684737	149	-48	1.08582	267.4	1	222	90	0	0	0	0	0	0	0	0	0	0	0	0.0000	7.1863	0.0000	0.0000;
	149	90	-21.2596649	123	-23	1.02501	253.8	1	222	90	0	0	0	0	0	0	0	0	0	0	0	0.0000	7.4559	0.0000	0.1626;
	150	90	-37.6420981	149	-48	1.025	267.4	1	222	90	0	0	0	0	0	0	0	0	0	0	0	0.0000	7.4562	0.0000	0.1620;
	150	0	0	123	-23	1.025	253.8	0	222	90	0	0	0	0	0	0	0	0	0	0	0	0.0000	0.0000	0.0000	0.0000;
	154	235	15.3714381	149	-53	1.09091	278.3	1	235	94	0	0	0	0	0	0	0	0	0	0	0	1.3980	0.0000	0.0000	0.0784;
	154	0	0	149	-53	1.09091	278.3	0	235	94	0	0	0	0	0	0	0	0	0	0	0	0.0000	0.0000	0.0000	0.0000;
	154	261	40.6166959	120	0	1.09091	287.3	1	261	104	0	0	0	0	0	0	0	0	0	0	0	1.3980	0.0000	0.0000	0.0784;
	154	0	0	132	-40	1.09091	292.5	0	261	104	0	0	0	0	0	0	0	0	0	0	0	0.0000	0.0000	0.0000	0.0000;
	155	0	0	120	0	1.09091	287.3	0	261	104	0	0	0	0	0	0	0	0	0	0	0	0.0000	0.0000	0.0000	0.0000;
	155	205	21.1596491	117	-22	1.09091	236	1	205	130	0	0	0	0	0	0	0	0	0	0	0	1.4039	0.0000	0.0000	0.0748;
	155	206	20.0546383	109	-20	1.09091	233.1	1	206	120	0	0	0	0	0	0	0	0	0	0	0	1.4039	0.0000	0.0000	0.0748;
	155	0	0	109	-20	1.09091	233.1	0	206	120	0	0	0	0	0	0	0	0	0	0	0	0.0000	0.0000	0.0000	0.0000;
	157	206	-20	109	-20	1.00076	233.1	1	206	120	0	0	0	0	0	0	0	0	0	0	0	1.7142	0.0000	0.0000	0.0000;
	163	0	0	104	-23	1.09091	225.4	0	200	150	0	0	0	0	0	0	0	0	0	0	0	0.0000	0.0000	0.0000	0.0000;
	163	200	86.6276903	104	-23	1.09091	225.4	1	200	150	0	0	0	0	0	0	0	0	0	0	0	13.8449	0.0000	0.0000	0.0000;
	164	200	61.393048	104	-23	1.09091	225.4	1	200	150	0	0	0	0	0	0	0	0	0	0	0	13.8513	0.0000	0.0000	0.0000;
	164	200	61.393048	104	-23	1.09091	225.4	1	200	150	0	0	0	0	0	0	0	0	0	0	0	13.8513	0.0000	0.0000	0.0000;
	179	170	43.77208	110	0	1.09091	219.5	1	170	170	0	0	0	0	0	0	0	0	0	0	0	105.1553	0.0000	0.0000	0.0000;
	204	179	4.10057901	110	-60	1.025	210.1	1	179	0	0	0	0	0	0	0	0	0	0	0	0	107.0236	0.0000	0.0000	0.0006;
	204	179	4.10057901	110	-60	1.025	210.1	1	179	0	0	0	0	0	0	0	0	0	0	0	0	107.0236	0.0000	0.0000	0.0006;
	204	179	4.10057901	110	-60	1.025	210.1	1	179	0	0	0	0	0	0	0	0	0	0	0	0	107.0236	0.0000	0.0000	0.0006;
	205	179	0.0338781433	110	-60	1.025	210.1	1	179	0	0	0	0	0	0	0	0	0	0	0	0	107.0237	0.0000	0.0000	0.0000;
	214	35	5.27757883	20	0	1.09209	58.5	1	35	35	0	0	0	0	0	0	0	0	0	0	0	106.3528	0.0000	0.0000	0.0000;
	214	0	0	20	0	1.09209	53.9	0	0	0	0	0	0	0	0	0	0	0	0	0	0	0.0000	0.0000	0.0000	0.0000;
	214	0	0	20	0	1.09209	53.9	0	0	0	0	0	0	0	0	0	0	0	0	0	0	0.0000	0.0000	0.0000	0.0000;
	214	10	5.27757883	20	0	1.09209	30.5	1	10	10	0	0	0	0	0	0	0	0	0	0	0	106.3528	0.0000	0.0000	0.0000;
	220	1.55	0	1	0	1.08853	2.3	1	1.55	1.55	0	0	0	0	0	0	0	0	0	0	0	102.9820	0.0000	0.0000	0.0000;
	221	1.55	0.266270727	1	0	1.07119	2.3	1	1.55	1.55	0	0	0	0	0	0	0	0	0	0	0	102.1784	0.0000	0.1191	0.0000;
	239	7	0.45235915	6	0	1.05821	9.8	1	7	7	0	0	0	0	0	0	0	0	0	0	0	108.7679	0.0000	1.0653	0.0000;
	246	370	-14.6197171	190	-19	1.03937	415.9	1	370	290	0	0	0	0	0	0	0	0	0	0	0	21.8055	0.0000	0.0000	0.0000;
	309	0	0	7	0	1.08081	27.9	0	0	0	0	0	0	0	0	0	0	0	0	0	0	0.0000	0.0000	0.0000	0.0000;
	309	0	0	7	0	1.08081	27.9	0	0	0	0	0	0	0	0	0	0	0	0	0	0	0.0000	0.0000	0.0000	0.0000;
	309	11	4	7	4	1.08081	30.8	1	11	11	0	0	0	0	0	0	0	0	0	0	0	100.5960	0.0000	0.4579	0.0000;
	309	0	0	7	0	1.08081	27.9	0	0	0	0	0	0	0	0	0	0	0	0	0	0	0.0000	0.0000	0.0000	0.0000;
	309	0	0	6	0	1.08081	27.7	0	0	0	0	0	0	0	0	0	0	0	0	0	0	0.0000	0.0000	0.0000	0.0000;
	309	0	0	7	0	1.08081	27.9	0	0	0	0	0	0	0	0	0	0	0	0	0	0	0.0000	0.0000	0.0000	0.0000;
	309	0	0	7	0	1.08081	27.9	0	0	0	0	0	0	0	0	0	0	0	0	0	0	0.0000	0.0000	0.0000	0.0000;
	310	15	1.74879607	15	0	1.08142	36.7	1	15	15	0	0	0	0	0	0	0	0	0	0	0	101.0131	0.0000	0.2846	0.0000;
	310	0	0	15	0	1.08142	57	0	0	0	0	0	0	0	0	0	0	0	0	0	0	0.0000	0.0000	0.0000	0.0000;
	311	15	3.70928151	15	0	1.0633	36.7	1	15	15	0	0	0	0	0	0	0	0	0	0	0	102.2436	0.0000	0.6692	0.0000;
	311	0	0	15	0	1.0633	57	0	0	0	0	0	0	0	0	0	0	0	0	0	0	0.0000	0.0000	0.0000	0.0000;
	313	30	8.920482	20	0	1.08629	53.9	1	30	30	0	0	0	0	0	0	0	0	0	0	0	100.1466	0.0000	0.4246	0.0000;
	313	0	0	20	0	1.08629	53.9	0	0	0	0	0	0	0	0	0	0	0	0	0	0	0.0000	0.0000	0.0000	0.0000;
	314	0	0	40	0	1.07946	107.7	0	0	0	0	0	0	0	0	0	0	0	0	0	0	0.0000	0.0000	0.0000	0.0000;
	322	2.5	1.1496708	3	0	1.08468	4.1	1	2.5	2.5	0	0	0	0	0	0	0	0	0	0	0	100.3025	0.0000	0.4638	0.0000;
	365	43.25	6.32559863	12	0	1.08196	47.8	1	43.25	43.25	0	0	0	0	0	0	0	0	0	0	0	105.1480	0.0000	0.1215	0.0000;
	366	43.25	9.53451293	12	0	1.06579	47.8	1	43.25	43.25	0	0	0	0	0	0	0	0	0	0	0	106.9522	0.0000	0.5644	0.0000;
	367	43.25	2.19549042	12	0	1.08899	47.8	1	43.25	43.25	0	0	0	0	0	0	0	0	0	0	0	104.2165	0.0000	0.0000	0.0000;
	368	43.25	9.31093171	12	0	1.08537	47.8	1	43.25	43.25	0	0	0	0	0	0	0	0	0	0	0	106.1289	0.0000	0.5321	0.0000;
	385	140	53.4185358	138	-47	1.09091	251.3	1	210	140	0	0	0	0	0	0	0	0	0	0	0	0.0000	5.1947	0.0000	0.0000;
	385	0	0	10	0	1.09091	26.9	0	25	12	0	0	0	0	0	0	0	0	0	0	0	0.0000	0.0000	0.0000	0.0000;
	386	10	0	10	0	1.0782	19.7	1	17	10	0	0	0	0	0	0	0	0	0	0	0	0.0000	4.0011	0.0000	0.0000;
	443	1.5	0.968787411	2	0	1.04966	3.6	1	1.5	1.5	0	0	0	0	0	0	0	0	0	0	0	100.0280	0.0000	0.3760	0.0000;
	452	5.21	0	2	0	1.07378	6.1	1	5.21	5.21	0	0	0	0	0	0	0	0	0	0	0	103.9109	0.0000	0.5886	0.0000;
	452	0	0	2	0	1.07378	6.1	0	0	0	0	0	0	0	0	0	0	0	0	0	0	0.0000	0.0000	0.0000	0.0000;
	485	1.4	0.7	0.7	0	1.05018	1.7	1	1.4	1.4	0	0	0	0	0	0	0	0	0	0	0	100.1099	0.0000	0.4896	0.0000;
	536	40	7.86790967	14	0	1.06099	53.9	1	40	40	0	0	0	0	0	0	0	0	0	0	0	106.7163	0.0000	1.3714	0.0000;
	536	0	0	14	0	1.06099	34.9	0	0	0	0	0	0	0	0	0	0	0	0	0	0	0.0000	0.0000	0.0000	0.0000;
	536	0	0	14	0	1.06099	34	0	0	0	0	0	0	0	0	0	0	0	0	0	0	0.0000	0.0000	0.0000	0.0000;
	536	0	0	14	0	1.06099	105.9	0	0	0	0	0	0	0	0	0	0	0	0	0	0	0.0000	0.0000	0.0000	0.0000;
	536	0	0	14	0	1.06099	105.9	0	0	0	0	0	0	0	0	0	0	0	0	0	0	0.0000	0.0000	0.0000	0.0000;
	537	25	5.71835503	17.5	0	1.05485	36.5	1	25	25	0	0	0	0	0	0	0	0	0	0	0	106.9421	0.0000	1.1885	0.0000;
	537	25	5.71835503	17.5	0	1.05485	35.6	1	25	25	0	0	0	0	0	0	0	0	0	0	0	106.9421	0.0000	1.1885	0.0000;
	537	0	0	17.5	0	1.05485	126.2	0	0	0	0	0	0	0	0	0	0	0	0	0	0	0.0000	0.0000	0.0000	0.0000;
	537	0	0	17.5	0	1.05485	106.4	0	0	0	0	0	0	0	0	0	0	0	0	0	0	0.0000	0.0000	0.0000	0.0000;
	551	1.4	0	0.7	0	1.05264	1.7	1	1.4	1.4	0	0	0	0	0	0	0	0	0	0	0	107.6947	0.0000	1.6230	0.0000;
	559	30	0.677747679	5	0	1.05731	34.4	1	30	30	0	0	0	0	0	0	0	0	0	0	0	107.1970	0.0000	1.4431	0.0000;
	559	0	0	5	0	1.05731	28.4	0	0	0	0	0	0	0	0	0	0	0	0	0	0	0.0000	0.0000	0.0000	0.0000;
	559	0	0	5	0	1.05731	26.5	0	0	0	0	0	0	0	0	0	0	0	0	0	0	0.0000	0.0000	0.0000	0.0000;
	559	0	0	5	0	1.05731	30.4	0	0	0	0	0	0	0	0	0	0	0	0	0	0	0.0000	0.0000	0.0000	0.0000;
	559	0	0	5	0	1.05731	34.4	0	0	0	0	0	0	0	0	0	0	0	0	0	0	0.0000	0.0000	0.0000	0.0000;
	560	30	0	5	0	1.05563	34.4	1	30	30	0	0	0	0	0	0	0	0	0	0	0	107.0075	0.0000	1.4200	0.0000;
	560	0	0	5	0	1.05563	34.4	0	0	0	0	0	0	0	0	0	0	0	0	0	0	0.0000	0.0000	0.0000	0.0000;
	560	0	0	5	0	1.05563	26.5	0	0	0	0	0	0	0	0	0	0	0	0	0	0	0.0000	0.0000	0.0000	0.0000;
	560	0	0	5	0	1.05563	34.4	0	0	0	0	0	0	0	0	0	0	0	0	0	0	0.0000	0.0000	0.0000	0.0000;
	573	1	0.579610009	4	0	1.07878	8.9	1	1	1	0	0	0	0	0	0	0	0	0	0	0	101.2170	0.0000	0.1598	0.0000;
	626	78	0	30	0	1.09062	97.7	1	78	78	0	0	0	0	0	0	0	0	0	0	0	98.9717	0.0000	0.0000	0.1920;
	626	30	0	30	0	1.09062	46.8	1	30	30	0	0	0	0	0	0	0	0	0	0	0	98.9717	0.0000	0.0000	0.1920;
	664	130	50.3847855	145	-34	1.09109	267.7	1	225	130	0	0	0	0	0	0	0	0	0	0	0	0.0000	0.8059	0.0000	0.0000;
	665	0	0	145	-34	1.09081	267.7	0	225	130	0	0	0	0	0	0	0	0	0	0	0	0.0000	0.0000	0.0000	0.0000;
	685	150	0	30	0	1.0956	182.5	1	150	150	0	0	0	0	0	0	0	0	0	0	0	100.9386	0.0000	0.0000	0.3032;
	685	50	0	30	0	1.0956	77.5	1	50	50	0	0	0	0	0	0	0	0	0	0	0	100.9386	0.0000	0.0000	0.3032;
	691	2.43	0.430082737	1.8	0	1.08826	3.1	1	2.43	2.43	0	0	0	0	0	0	0	0	0	0	0	101.7600	0.0000	0.0000	0.1916;
	716	1.47	1.3	1.3	0	1.0787	10.1	1	1.47	1.47	0	0	0	0	0	0	0	0	0	0	0	101.3106	0.0000	0.0000	0.3272;
	740	129	14.0005126	130	-16	1.09091	259.9	1	225	129	0	0	0	0	0	0	0	0	0	0	0	0.0000	5.3836	0.0000	0.7237;
	763	86	0	30	0	1.07793	105.4	1	86	86	0	0	0	0	0	0	0	0	0	0	0	100.7861	0.0000	0.0000	0.7184;
	792	1	1	1	0	1.05313	8.4	1	1	1	0	0	0	0	0	0	0	0	0	0	0	102.2924	0.0000	0.0000	0.0000;
	796	68.1	0	23	0	1.06122	71.9	1	68.1	5	0	0	0	0	0	0	0	0	0	0	0	100.8896	0.0000	0.0000	0.0000;
	796	0	0	23	0	1.06122	71.9	0	68.1	5	0	0	0	0	0	0	0	0	0	0	0	0.0000	0.0000	0.0000	0.0000;
	796	0	0	11	0	1.06122	32.9	0	31	16	0	0	0	0	0	0	0	0	0	0	0	0.0000	0.0000	0.0000	0.0000;
	796	0	0	10	0	1.06122	32.6	0	31	16	0	0	0	0	0	0	0	0	0	0	0	0.0000	0.0000	0.0000	0.0000;
	807	0	0	10	0	1.08198	125.4	0	125	84	0	0	0	0	0	0	0	0	0	0	0	0.0000	0.0000	0.0000	0.0000;
	808	92	1.73412947	10	0	1.08715	125.4	1	125	92	0	0	0	0	0	0	0	0	0	0	0	0.0000	11.7016	0.0000	0.2155;
	845	15	8.1	8.1	0	1.07142	33	1	15	15	0	0	0	0	0	0	0	0	0	0	0	101.4845	0.0000	0.0000	0.3422;
	845	15	8.1	8.1	0	1.07142	33	1	15	15	0	0	0	0	0	0	0	0	0	0	0	101.4845	0.0000	0.0000	0.3422;
	845	0	0	0	0	1.07142	19	0	0	0	0	0	0	0	0	0	0	0	0	0	0	0.0000	0.0000	0.0000	0.0000;
	845	0	0	0	0	1.07142	19	0	0	0	0	0	0	0	0	0	0	0	0	0	0	0.0000	0.0000	0.0000	0.0000;
	877	35	13.3442289	41.2	0	1.08527	87.7	1	35	35	0	0	0	0	0	0	0	0	0	0	0	99.6941	0.0000	0.0000	0.0000;
	900	0	0	45	-10	1.07146	65.8	0	0	0	0	0	0	0	0	0	0	0	0	0	0	0.0000	0.0000	0.0000	0.0000;
	900	50	19.0053846	45	-10	1.07146	71.1	1	50	50	0	0	0	0	0	0	0	0	0	0	0	100.4491	0.0000	0.0000	0.0000;
	900	0	0	45	-10	1.07146	71.1	0	0	0	0	0	0	0	0	0	0	0	0	0	0	0.0000	0.0000	0.0000	0.0000;
	975	0	0	110	-40	1.07686	162.2	0	0	0	0	0	0	0	0	0	0	0	0	0	0	0.0000	0.0000	0.0000	0.0000;
	976	100	31.7920823	110	-40	1.08609	162.2	1	100	100	0	0	0	0	0	0	0	0	0	0	0	99.8359	0.0000	0.0000	0.0000;
	980	0	0	0	0	1.08643	16.8	0	0	0	0	0	0	0	0	0	0	0	0	0	0	0.0000	0.0000	0.0000	0.0000;
	1001	386	63.3651516	240	-32	1.10276	454.5	1	386	220	0	0	0	0	0	0	0	0	0	0	0	8.2033	0.0000	0.0000	0.0000;
	1002	370	35.784203	227	-30	1.09091	434.1	1	370	220	0	0	0	0	0	0	0	0	0	0	0	8.2850	0.0000	0.0000	0.0000;
	1006	6	1.447	1.447	0	1.08426	7.1	1	6	6	0	0	0	0	0	0	0	0	0	0	0	99.5548	0.0000	0.2022	0.0000;
	1005	4	0.447	0.447	0	1.08426	4	1	4	4	0	0	0	0	0	0	0	0	0	0	0	99.5534	0.0000	0.2022	0.0000;
	1006	4	0.447	0.447	0	1.08426	5	1	4	4	0	0	0	0	0	0	0	0	0	0	0	99.5548	0.0000	0.2022	0.0000;
	1006	0	0	0	0	1.08426	6	0	0	0	0	0	0	0	0	0	0	0	0	0	0	0.0000	0.0000	0.0000	0.0000;
	1007	0	0	110	-40	1.08332	174.1	0	0	0	0	0	0	0	0	0	0	0	0	0	0	0.0000	0.0000	0.0000	0.0000;
	1013	15	4.8	4.8	0	1.07931	20.6	1	15	15	0	0	0	0	0	0	0	0	0	0	0	99.3353	0.0000	0.1660	0.0000;
	1013	0	0	0	0	1.07931	12.8	0	0	0	0	0	0	0	0	0	0	0	0	0	0	0.0000	0.0000	0.0000	0.0000;
	1013	0	0	0	0	1.07931	12.5	0	0	0	0	0	0	0	0	0	0	0	0	0	0	0.0000	0.0000	0.0000	0.0000;
	1015	0	0	0	0	1.07594	20	0	0	0	0	0	0	0	0	0	0	0	0	0	0	0.0000	0.0000	0.0000	0.0000;
	1015	0	0	0	0	1.07594	19	0	0	0	0	0	0	0	0	0	0	0	0	0	0	0.0000	0.0000	0.0000	0.0000;
	1024	12	18	18	9	1.05936	30	1	12	12	0	0	0	0	0	0	0	0	0	0	0	102.5270	0.0000	0.6994	0.0000;
	1025	0	0	18	9	1.05941	30	0	0	0	0	0	0	0	0	0	0	0	0	0	0	0.0000	0.0000	0.0000	0.0000;
	1026	0	0	14	10.5	1.05936	32.2	0	0	0	0	0	0	0	0	0	0	0	0	0	0	0.0000	0.0000	0.0000	0.0000;
	1113	0	0	37.5	16.8	1.08345	62.5	0	0	0	0	0	0	0	0	0	0	0	0	0	0	0.0000	0.0000	0.0000	0.0000;
	1114	0	0	37.5	7.5	1.07469	62.5	0	0	0	0	0	0	0	0	0	0	0	0	0	0	0.0000	0.0000	0.0000	0.0000;
	1113	50	37.5	37.5	7.5	1.08345	62.5	1	50	50	0	0	0	0	0	0	0	0	0	0	0	100.1524	0.0000	0.0695	0.0000;
	1115	0	0	37.5	16.8	1.08094	62.5	0	0	0	0	0	0	0	0	0	0	0	0	0	0	0.0000	0.0000	0.0000	0.0000;
	1152	17	5.251	5.251	0	1.06515	30.5	1	17	17	0	0	0	0	0	0	0	0	0	0	0	101.6968	0.0000	0.1697	0.0000;
	1152	0	0	0	0	1.06515	6	0	0	0	0	0	0	0	0	0	0	0	0	0	0	0.0000	0.0000	0.0000	0.0000;
	1153	17	5.251	5.251	0	1.06525	30.5	1	17	17	0	0	0	0	0	0	0	0	0	0	0	101.6830	0.0000	0.1664	0.0000;
	1153	0	0	0	0	1.06525	25	0	0	0	0	0	0	0	0	0	0	0	0	0	0	0.0000	0.0000	0.0000	0.0000;
	1154	16	5.25	5.25	0	1.06879	30.5	1	16	16	0	0	0	0	0	0	0	0	0	0	0	101.0285	0.0000	0.0813	0.0000;
	1154	0	0	0	0	1.06879	6	0	0	0	0	0	0	0	0	0	0	0	0	0	0	0.0000	0.0000	0.0000	0.0000;
	1179	70	39.7696767	52.5	0	1.08436	87.5	1	70	70	0	0	0	0	0	0	0	0	0	0	0	99.8463	0.0000	0.0000	0.0000;
	1180	0	0	52.5	0	1.07255	87.5	0	0	0	0	0	0	0	0	0	0	0	0	0	0	0.0000	0.0000	0.0000	0.0000;
	1180	0	0	42	16.8	1.07255	65.3	0	0	0	0	0	0	0	0	0	0	0	0	0	0	0.0000	0.0000	0.0000	0.0000;
	1188	50	0	0	0	1.0801	50	1	50	50	0	0	0	0	0	0	0	0	0	0	0	100.0495	0.0000	0.1646	0.0000;
	1246	10	2	2	0	1.07803	16.7	1	10	10	0	0	0	0	0	0	0	0	0	0	0	99.5205	0.0000	0.0913	0.0000;
	1246	0	0	0	0	1.07803	24	0	0	0	0	0	0	0	0	0	0	0	0	0	0	0.0000	0.0000	0.0000	0.0000;
	1247	0	0	0	0	1.06772	14.6	0	0	0	0	0	0	0	0	0	0	0	0	0	0	0.0000	0.0000	0.0000	0.0000;
	1247	0	0	0	0	1.06772	14.6	0	0	0	0	0	0	0	0	0	0	0	0	0	0	0.0000	0.0000	0.0000	0.0000;
...
];

%% branch data
%	fbus	tbus	r	x	b	rateA	rateB	rateC	ratio	angle	status	angmin	angmax	Pf	Qf	Pt	Qt	mu_Sf	mu_St	mu_angmin	mu_angmax
mpc.branch = [
	7	8	0.00064	0.0305	0	400	400	400	1.0435	-0.6	1	-360	360	-188.3287	-14.9626	188.5556	25.7768	0.0000	0.0000	0.0000	0.0000;
	26	28	0.00036	0.02519	0	500	500	500	1.067	0	1	-360	360	86.8090	-19.4184	-86.7817	21.3252	0.0000	0.0000	0.0000	0.0000;
	27	29	0.00036	0.02519	0	500	500	500	1.0671	0	1	-360	360	213.2510	-17.0003	-213.0933	28.0307	0.0000	0.0000	0.0000	0.0000;
	39	41	0.00034	0.02097	0	500	500	500	1.1102	0	1	-360	360	-18.6966	-116.4726	18.7445	119.4271	0.0000	0.0000	0.0000	0.0000;
	42	45	0.00034	0.02097	0	500	500	500	1.0917	0	1	-360	360	-44.9252	-96.3114	44.9637	98.6833	0.0000	0.0000	0.0000	0.0000;
	54	56	0.00081	0.03	0	400	400	400	1.0466	0	1	-360	360	15.8961	7.2017	-15.8939	-7.1176	0.0000	0.0000	0.0000	0.0000;
	89	91	0.00075	0.02444	-0.00832	330	330	330	1.0553	0	1	-360	360	-92.0877	6.1274	92.1476	-3.2888	0.0000	0.0000	0.0000	0.0000;
	90	92	0.00075	0.02469	-0.008	330	330	330	1.0552	0	1	-360	360	-91.3624	6.4637	91.4214	-3.6694	0.0000	0.0000	0.0000	0.0000;
	124	127	0.0005	0.02875	-0.016	400	400	400	1.087	0	1	-360	360	80.1218	-74.6679	-80.0617	79.7726	0.0000	0.0000	0.0000	0.0000;
	148	149	0.00064	0.0305	0	400	400	400	1.0636	0	1	-360	360	-74.2075	-11.4971	74.2421	13.1474	0.0000	0.0000	0.0000	0.0000;
	154	156	0.000232	0.023	0	500	500	500	1.0953	0	1	-360	360	31.5041	-23.2221	-31.5005	23.5772	0.0000	0.0000	0.0000	0.0000;
	155	157	0.000232	0.023	0	500	500	500	1.0953	0	1	-360	360	30.4543	-23.1438	-30.4509	23.4830	0.0000	0.0000	0.0000	0.0000;
	168	170	0.00035	0.02375	0	500	500	500	1.0767	0	1	-360	360	41.0741	-49.3344	-41.0596	50.3151	0.0000	0.0000	0.0000	0.0000;
	182	183	0.00059	0.03093	0	400	400	400	1.0504	0	1	-360	360	-65.4800	5.8287	65.5040	-4.5714	0.0000	0.0000	0.0000	0.0000;
	189	191	0.0004	0.03	0	500	500	500	1.0695	3.6	1	-360	360	-216.1324	-32.7511	216.3287	47.4780	0.0000	0.0000	0.0000	0.0000;
	2726	156	0.00031	0.00338	0.0992	1386	1386	1386	0	0	1	-360	360	-66.7025	15.3737	66.7175	-25.1607	0.0000	0.0000	0.0000	0.0000;
	2726	157	0.00031	0.00338	0.0992	1386	1386	1386	0	0	1	-360	360	-69.6285	16.1643	69.6448	-25.9365	0.0000	0.0000	0.0000	0.0000;
	2727	67	0.014341	0.083531	0.126034	385	385	385	0	0	1	-360	360	125.0000	0.9126	-123.1086	-4.6402	0.0000	0.0000	0.0000	0.0000;
	2725	75	0.01219	0.070659	0.117418	412	412	412	0	0	1	-360	360	-174.3049	39.1358	177.6538	-33.5668	0.0000	0.0000	0.0000	0.0000;
	2725	104	0.011781	0.07087	0.116838	412	412	412	0	0	1	-360	360	-196.8951	36.4292	200.9422	-25.9235	0.0000	0.0000	0.0000	0.0000;
	126	2724	0.001525	0.016837	0.50576	1386	1386	1386	0	0	1	-360	360	434.2395	-12.0693	-431.5000	-10.5040	0.0000	0.0000	0.0000	0.0000;
	2728	147	0.001651	0.015909	0.046948	316	316	316	0	0	1	-360	360	88.6133	-23.1483	-88.4972	18.7411	0.0000	0.0000	0.0000	0.0000;
	2728	148	0.001651	0.015909	0.046948	316	316	316	0	0	1	-360	360	88.0777	-22.9567	-87.9630	18.5358	0.0000	0.0000	0.0000	0.0000;
	2729	47	0.00188	0.02287	0.6432	831	831	831	0	0	1	-360	360	-154.0300	-94.3008	154.5312	33.0044	0.0000	0.0000	0.0000	0.0000;
	2729	48	0.00188	0.02287	0.6432	831	831	831	0	0	1	-360	360	-153.5520	-94.2222	154.0504	32.8930	0.0000	0.0000	0.0000	0.0000;
	81	2723	0.002769	0.031162	0.89824	1386	1386	1386	0	0	1	-360	360	178.4488	-52.5480	-177.6040	-31.6380	0.0000	0.0000	0.0000	0.0000;
	42	23	0.01345	0.081141	0.141134	339	339	339	0	0	1	-360	360	159.0619	43.6501	-155.8964	-40.5634	0.0000	0.0000	0.0000	0.0000;
	26	89	0.009091	0.062401	0.111417	453	453	453	0	0	1	-360	360	141.6421	-19.0844	-140.0977	16.4450	0.0000	0.0000	0.0000	0.0000;
	27	90	0.00868	0.06405	0.096994	427	427	427	0	0	1	-360	360	194.3901	-19.0193	-191.6212	27.9245	0.0000	0.0000	0.0000	0.0000;
	145	30	0.016961	0.123659	0.196988	316	316	316	0	0	1	-360	360	80.6355	19.3652	-79.5689	-34.0483	0.0000	0.0000	0.0000	0.0000;
	134	33	0.00512	0.02618	0.029621	301	301	301	0	0	1	-360	360	-74.5726	69.7046	75.0316	-70.8397	0.0000	0.0000	0.0000	0.0000;
	133	20	0.01068	0.061961	0.094961	385	385	385	0	0	1	-360	360	-138.7504	51.5699	140.7719	-50.9827	0.0000	0.0000	0.0000	0.0000;
	163	21	0.014651	0.105891	0.170852	316	316	316	0	0	1	-360	360	101.8910	16.6882	-100.5242	-26.4921	0.0000	0.0000	0.0000	0.0000;
	40	108	0.01488	0.08161	0.114805	314	314	314	0	0	1	-360	360	-71.5998	27.4144	72.3712	-36.9770	0.0000	0.0000	0.0000	0.0000;
	39	90	0.011159	0.07231	0.103673	324	324	324	0	0	1	-360	360	-116.5576	37.6394	117.9800	-40.8838	0.0000	0.0000	0.0000	0.0000;
	177	82	0.005517	0.059484	0.170775	316	316	316	0	0	1	-360	360	-160.5962	5.5083	161.8289	-12.1749	0.0000	0.0000	0.0000	0.0000;
	202	164	0.01176	0.068289	0.102802	324	324	324	0	0	1	-360	360	-208.8984	-19.5174	213.5717	34.8683	0.0000	0.0000	0.0000	0.0000;
	193	164	0.016818	0.089091	0.129935	358	358	358	0	0	1	-360	360	-148.5393	-11.0172	151.8630	13.6340	0.0000	0.0000	0.0000	0.0000;
	192	163	0.013843	0.087025	0.134842	383	383	383	0	0	1	-360	360	-152.9718	-15.6874	155.8795	18.4105	0.0000	0.0000	0.0000	0.0000;
	206	166	0.01676	0.097169	0.148685	269	269	269	0	0	1	-360	360	7.5082	-4.7834	-7.4979	-12.3997	0.0000	0.0000	0.0000	0.0000;
	42	10	0.01269	0.074979	0.130196	351	351	351	0	0	1	-360	360	171.8582	46.6003	-168.3939	-40.9140	0.0000	0.0000	0.0000	0.0000;
	197	18	0.014091	0.10413	0.15972	316	316	316	0	0	1	-360	360	-34.5892	-23.3641	34.7677	6.6143	0.0000	0.0000	0.0000	0.0000;
	99	54	0.003719	0.0438	0.100962	457	457	457	0	0	1	-360	360	-11.9159	-3.4715	11.9205	-8.5014	0.0000	0.0000	0.0000	0.0000;
	161	81	0.00194	0.02056	0.51584	1178	1178	1178	0	0	1	-360	360	-487.2288	-30.4047	491.7703	25.4323	0.0000	0.0000	0.0000	0.0000;
	44	9	0.0015	0.01506	0.4032	1386	1386	1386	0	0	1	-360	360	340.4191	14.3643	-338.7293	-38.9554	0.0000	0.0000	0.0000	0.0000;
	184	149	0.00294	0.03463	0.9216	693	693	693	0	0	1	-360	360	-40.2797	-30.5873	40.3340	-66.0657	0.0000	0.0000	0.0000	0.0000;
	120	56	0.00169	0.01994	0.50624	831	831	831	0	0	1	-360	360	-21.4504	-8.6496	21.4631	-46.1685	0.0000	0.0000	0.0000	0.0000;
	29	92	0.00137	0.01625	0.41184	1386	1386	1386	0	0	1	-360	360	214.5593	-65.8402	-213.9361	29.5859	0.0000	0.0000	0.0000	0.0000;
	28	122	0.00231	0.02769	0.70144	1386	1386	1386	0	0	1	-360	360	315.2072	-94.5996	-312.9590	46.6783	0.0000	0.0000	0.0000	0.0000;
	25	191	0.00207	0.02474	0.664	1386	1386	1386	0	0	1	-360	360	394.3293	4.7557	-391.1596	-34.0879	0.0000	0.0000	0.0000	0.0000;
	119	63	0.0015	0.01788	0.4512	831	831	831	0	0	1	-360	360	88.4471	-27.5954	-88.3392	-20.2305	0.0000	0.0000	0.0000	0.0000;
	121	63	0.00469	0.05544	1.4048	831	831	831	0	0	1	-360	360	112.3465	-89.2676	-111.7905	-56.4104	0.0000	0.0000	0.0000	0.0000;
	81	31	0.00331	0.03425	0.85888	977	977	977	0	0	1	-360	360	-135.9579	-42.1466	136.5438	-41.9213	0.0000	0.0000	0.0000	0.0000;
	91	28	0.00219	0.02369	0.59584	1178	1178	1178	0	0	1	-360	360	-145.7414	4.6503	146.2056	-62.7755	0.0000	0.0000	0.0000	0.0000;
	12	4	0.01674	0.09711	0.144232	427	427	427	0	0	1	-360	360	-221.7516	20.1044	229.4917	8.7456	0.0000	0.0000	0.0000	0.0000;
	30	11	0.0057	0.0407	0.06021	316	316	316	0	0	1	-360	360	-10.5520	13.5527	10.5726	-19.9489	0.0000	0.0000	0.0000	0.0000;
	24	4	0.004419	0.032229	0.049852	383	383	383	0	0	1	-360	360	174.6553	0.8923	-173.4931	1.8367	0.0000	0.0000	0.0000	0.0000;
	17	7	0.014591	0.11219	0.165528	383	383	383	0	0	1	-360	360	-91.7184	32.2461	93.0052	-40.9567	0.0000	0.0000	0.0000	0.0000;
	21	10	0.01211	0.087419	0.140166	316	316	316	0	0	1	-360	360	-15.8815	13.7024	15.9592	-28.5230	0.0000	0.0000	0.0000	0.0000;
	26	5	0.009773	0.050516	0.088959	377	377	377	0	0	1	-360	360	190.0542	10.1934	-187.0683	-5.1474	0.0000	0.0000	0.0000	0.0000;
	17	3	0.01068	0.07895	0.245194	274	274	274	0	0	1	-360	360	75.6386	-9.7097	-75.1063	-14.3522	0.0000	0.0000	0.0000	0.0000;
	26	19	0.0057	0.039521	0.075533	440	440	440	0	0	1	-360	360	189.4217	17.2238	-187.6806	-14.0128	0.0000	0.0000	0.0000	0.0000;
	27	20	0.0057	0.039521	0.075533	440	440	440	0	0	1	-360	360	278.5401	11.2731	-274.8122	5.7127	0.0000	0.0000	0.0000	0.0000;
	13	6	0.00525	0.03988	0.061952	316	316	316	0	0	1	-360	360	-3.4854	-22.3586	3.5036	15.7559	0.0000	0.0000	0.0000	0.0000;
	13	12	2.1e-05	0.000207	0	316	316	316	0	0	1	-360	360	-92.5351	-13.6095	92.5368	13.6262	0.0000	0.0000	0.0000	0.0000;
	32	13	0.00093	0.00651	0.011132	316	316	316	0	0	1	-360	360	-95.9296	-36.5308	96.0205	35.9681	0.0000	0.0000	0.0000	0.0000;
	23	11	0.00205	0.01326	0.022429	385	385	385	0	0	1	-360	360	-1.6935	-7.6018	1.6944	5.1856	0.0000	0.0000	0.0000	0.0000;
	33	5	0.007831	0.043	0.04962	301	301	301	0	0	1	-360	360	-101.8617	36.0387	102.6638	-37.3565	0.0000	0.0000	0.0000	0.0000;
	19	4	0.00293	0.01599	0.024781	324	324	324	0	0	1	-360	360	133.0090	9.4955	-132.5576	-9.8839	0.0000	0.0000	0.0000	0.0000;
	26	1	0.00155	0.01169	0.018198	633	633	633	0	0	1	-360	360	70.5093	79.8656	-70.3592	-80.8803	0.0000	0.0000	0.0000	0.0000;
	27	2	0.00155	0.01169	0.018198	633	633	633	0	0	1	-360	360	57.2111	42.3330	-57.1439	-43.9813	0.0000	0.0000	0.0000	0.0000;
	27	24	0.003841	0.028531	0.045883	392	392	392	0	0	1	-360	360	261.7468	22.4844	-259.5150	-11.2995	0.0000	0.0000	0.0000	0.0000;
	25	9	0.00298	0.03418	0.93504	831	831	831	0	0	1	-360	360	-41.9108	-38.4201	41.9644	-56.6580	0.0000	0.0000	0.0000	0.0000;
	28	25	0.00358	0.04262	1.0944	1386	1386	1386	0	0	1	-360	360	502.8737	-13.3524	-494.2254	2.4789	0.0000	0.0000	0.0000	0.0000;
	14	29	0.00336	0.03977	1.02163	1316	1316	1316	0	0	1	-360	360	-429.6079	-43.7373	435.7944	11.8577	0.0000	0.0000	0.0000	0.0000;
	8	15	0.00299	0.03675	0.9184	1150	1150	1150	0	0	1	-360	360	135.2200	-67.1416	-134.6728	-20.3703	0.0000	0.0000	0.0000	0.0000;
	8	14	0.00112	0.01329	0.341248	1150	1150	1150	0	0	1	-360	360	-181.1742	71.1788	181.6202	-100.4236	0.0000	0.0000	0.0000	0.0000;
	31	29	0.00075	0.009	0.22848	1150	1150	1150	0	0	1	-360	360	-304.5674	12.2092	305.2316	-28.3307	0.0000	0.0000	0.0000	0.0000;
	62	58	0.010479	0.060969	0.092047	269	269	269	0	0	1	-360	360	1.2502	-0.1802	-1.2476	-10.7189	0.0000	0.0000	0.0000	0.0000;
	60	55	0.00882	0.065641	0.100662	274	274	274	0	0	1	-360	360	-36.2158	7.4554	36.3255	-18.6781	0.0000	0.0000	0.0000	0.0000;
	66	34	0.011219	0.065581	0.098349	274	274	274	0	0	1	-360	360	16.5048	0.8038	-16.4745	-12.0588	0.0000	0.0000	0.0000	0.0000;
	50	34	0.01163	0.07031	0.105802	341	341	341	0	0	1	-360	360	-5.8110	-10.8113	5.8167	-1.3457	0.0000	0.0000	0.0000	0.0000;
	58	42	0.00545	0.040211	0.066986	404	404	404	0	0	1	-360	360	-23.4242	-10.2669	23.4514	2.5210	0.0000	0.0000	0.0000	0.0000;
	59	43	0.00545	0.040211	0.066986	404	404	404	0	0	1	-360	360	-24.2553	-10.1955	24.2842	2.4628	0.0000	0.0000	0.0000	0.0000;
	59	34	0.00837	0.04868	0.073481	379	379	379	0	0	1	-360	360	7.9601	21.1807	-7.9095	-29.4786	0.0000	0.0000	0.0000	0.0000;
	67	51	0.003159	0.02076	0.03146	385	385	385	0	0	1	-360	360	68.4493	-8.3406	-68.3193	5.5798	0.0000	0.0000	0.0000	0.0000;
	51	38	0.006979	0.051961	0.079666	316	316	316	0	0	1	-360	360	42.3311	7.8087	-42.2129	-16.0029	0.0000	0.0000	0.0000	0.0000;
	36	55	0.00374	0.027831	0.042689	274	274	274	0	0	1	-360	360	-76.6391	-10.9308	76.8275	7.2737	0.0000	0.0000	0.0000	0.0000;
	37	35	0.00769	0.057271	0.087894	316	316	316	0	0	1	-360	360	35.8217	6.8726	-35.7286	-16.4652	0.0000	0.0000	0.0000	0.0000;
	54	37	0.00556	0.04145	0.063598	383	383	383	0	0	1	-360	360	51.8647	2.8688	-51.7371	-9.4545	0.0000	0.0000	0.0000	0.0000;
	66	36	0.004521	0.03368	0.051691	392	392	392	0	0	1	-360	360	-57.0232	-11.6475	57.1519	6.5371	0.0000	0.0000	0.0000	0.0000;
	66	65	0.00151	0.008781	0.013165	341	341	341	0	0	1	-360	360	40.5184	10.8437	-40.4955	-12.2464	0.0000	0.0000	0.0000	0.0000;
	61	42	0.00574	0.042831	0.065727	404	404	404	0	0	1	-360	360	-20.3923	-2.2133	20.4125	-5.4548	0.0000	0.0000	0.0000	0.0000;
	62	43	0.00707	0.045409	0.069309	314	314	314	0	0	1	-360	360	-20.0830	-2.0167	20.1072	-6.0725	0.0000	0.0000	0.0000	0.0000;
	61	39	0.01213	0.062151	0.093712	314	314	314	0	0	1	-360	360	-60.0474	-15.5575	60.4253	6.2183	0.0000	0.0000	0.0000	0.0000;
	60	40	0.002479	0.017979	0.027588	316	316	316	0	0	1	-360	360	-72.8022	-34.8816	72.9343	32.5039	0.0000	0.0000	0.0000	0.0000;
	46	39	0.002401	0.01494	0.022525	341	341	341	0	0	1	-360	360	-73.3832	-14.7368	73.4937	12.6904	0.0000	0.0000	0.0000	0.0000;
	49	45	0.00167	0.0189	0.54176	1150	1150	1150	0	0	1	-360	360	-46.7867	14.7671	46.8511	-70.7652	0.0000	0.0000	0.0000	0.0000;
	57	53	0.00109	0.01277	0.34176	1150	1150	1150	0	0	1	-360	360	140.6214	33.4309	-140.3951	-67.4969	0.0000	0.0000	0.0000	0.0000;
	41	57	0.002259	0.026439	0.70784	1150	1150	1150	0	0	1	-360	360	-18.7445	-119.4271	18.9011	46.2428	0.0000	0.0000	0.0000	0.0000;
	63	57	0.00094	0.01097	0.29376	1393	1393	1393	0	0	1	-360	360	-182.6039	26.2939	182.9074	-54.6262	0.0000	0.0000	0.0000	0.0000;
	47	64	0.00113	0.01406	0.37488	1386	1386	1386	0	0	1	-360	360	-330.1834	-65.4260	331.3617	39.7291	0.0000	0.0000	0.0000	0.0000;
	52	44	0.00176	0.02144	0.57344	1150	1150	1150	0	0	1	-360	360	23.5356	29.7447	-23.4664	-89.2879	0.0000	0.0000	0.0000	0.0000;
	95	124	0.004876	0.033616	0.059609	404	404	404	0	0	1	-360	360	-84.4550	-10.2398	84.7525	5.2363	0.0000	0.0000	0.0000	0.0000;
	74	105	0.01093	0.059194	0.08439	246	246	246	0	0	1	-360	360	3.9533	-6.4572	-3.9516	-3.5106	0.0000	0.0000	0.0000	0.0000;
	105	93	0.001942	0.013926	0.022845	404	404	404	0	0	1	-360	360	73.2531	9.1323	-73.1631	-11.1828	0.0000	0.0000	0.0000	0.0000;
	78	84	0.004318	0.029752	0.05264	316	316	316	0	0	1	-360	360	113.6266	-5.4464	-113.1580	2.4305	0.0000	0.0000	0.0000	0.0000;
	130	129	0.000661	0.004959	0.007579	379	379	379	0	0	1	-360	360	94.9723	-0.0111	-94.9220	-0.5090	0.0000	0.0000	0.0000	0.0000;
	106	130	0.005372	0.040393	0.060055	379	379	379	0	0	1	-360	360	-41.5943	-0.8607	41.6733	-5.6546	0.0000	0.0000	0.0000	0.0000;
	90	130	0.000826	0.005248	0.008683	301	301	301	0	0	1	-360	360	136.7760	-5.8667	-136.6455	5.6657	0.0000	0.0000	0.0000	0.0000;
	99	118	0.015888	0.087603	0.116818	314	314	314	0	0	1	-360	360	-61.5666	10.5649	62.1127	-21.4283	0.0000	0.0000	0.0000	0.0000;
	80	112	0.002169	0.014587	0.025749	269	269	269	0	0	1	-360	360	-12.1689	-5.9142	12.1720	2.9304	0.0000	0.0000	0.0000	0.0000;
	115	100	0.017727	0.116777	0.163611	246	246	246	0	0	1	-360	360	63.2292	-18.9910	-62.6198	3.5368	0.0000	0.0000	0.0000	0.0000;
	125	73	0.00593	0.04093	0.072145	404	404	404	0	0	1	-360	360	49.4237	-0.9297	-49.3014	-6.7823	0.0000	0.0000	0.0000	0.0000;
	107	89	0.003905	0.028471	0.044983	383	383	383	0	0	1	-360	360	-86.9644	8.6954	87.2177	-12.1844	0.0000	0.0000	0.0000	0.0000;
	117	78	0.008161	0.042417	0.061197	356	356	356	0	0	1	-360	360	-60.5942	0.9412	60.8488	-6.8806	0.0000	0.0000	0.0000	0.0000;
	118	77	0.008161	0.042417	0.061197	356	356	356	0	0	1	-360	360	-59.8356	0.8333	60.0838	-6.8059	0.0000	0.0000	0.0000	0.0000;
	78	75	0.005186	0.038388	0.058748	453	453	453	0	0	1	-360	360	131.6923	1.6060	-130.9354	-2.9497	0.0000	0.0000	0.0000	0.0000;
	77	72	0.002128	0.014029	0.022603	301	301	301	0	0	1	-360	360	121.3268	17.5094	-121.0572	-18.4106	0.0000	0.0000	0.0000	0.0000;
	113	77	0.004628	0.027748	0.046115	324	324	324	0	0	1	-360	360	-93.6945	-25.7220	94.0633	22.4964	0.0000	0.0000	0.0000	0.0000;
	102	71	0.011219	0.070744	0.115705	246	246	246	0	0	1	-360	360	-57.7190	-11.1186	58.0433	-0.3669	0.0000	0.0000	0.0000	0.0000;
	109	116	0.006012	0.041467	0.073636	383	383	383	0	0	1	-360	360	-85.7448	-9.2739	86.1231	3.1930	0.0000	0.0000	0.0000	0.0000;
	90	68	0.002066	0.012789	0.020551	269	269	269	0	0	1	-360	360	73.6588	6.4805	-73.5633	-8.3229	0.0000	0.0000	0.0000	0.0000;
	85	89	0.001364	0.009731	0.016243	453	453	453	0	0	1	-360	360	-99.4220	3.3975	99.5361	-4.5099	0.0000	0.0000	0.0000	0.0000;
	128	86	0.000579	0.004112	0.007008	404	404	404	0	0	1	-360	360	-54.5429	-3.7235	54.5575	2.9973	0.0000	0.0000	0.0000	0.0000;
	131	75	0.000847	0.00624	0.009544	457	457	457	0	0	1	-360	360	123.5000	19.1684	-123.3876	-19.4640	0.0000	0.0000	0.0000	0.0000;
	132	76	0.000847	0.00626	0.009477	457	457	457	0	0	1	-360	360	0.0000	-0.0000	0.0000	-1.1130	0.0000	0.0000	0.0000	0.0000;
	101	76	0.001591	0.011116	0.019128	453	453	453	0	0	1	-360	360	-76.5421	-58.4325	76.6676	57.0776	0.0000	0.0000	0.0000	0.0000;
	124	103	0.003141	0.021591	0.038391	404	404	404	0	0	1	-360	360	139.2748	-11.2218	-138.7607	10.1941	0.0000	0.0000	0.0000	0.0000;
	125	110	0.004545	0.03157	0.055312	316	316	316	0	0	1	-360	360	87.3886	36.8855	-87.0353	-40.9241	0.0000	0.0000	0.0000	0.0000;
	103	83	0.001446	0.009917	0.017598	316	316	316	0	0	1	-360	360	-2.5109	16.5354	2.5147	-18.5932	0.0000	0.0000	0.0000	0.0000;
	104	94	0.003822	0.026674	0.046154	316	316	316	0	0	1	-360	360	8.0409	12.8434	-8.0310	-18.2271	0.0000	0.0000	0.0000	0.0000;
	111	79	0.007769	0.041281	0.063907	269	269	269	0	0	1	-360	360	-7.2262	-12.4756	7.2348	5.0969	0.0000	0.0000	0.0000	0.0000;
	88	77	0.004463	0.030413	0.048671	246	246	246	0	0	1	-360	360	-91.0185	-13.4081	91.3374	9.8262	0.0000	0.0000	0.0000	0.0000;
	116	107	0.005888	0.035062	0.052349	246	246	246	0	0	1	-360	360	55.7295	-8.9643	-55.5738	3.6782	0.0000	0.0000	0.0000	0.0000;
	108	98	0.003161	0.023409	0.036165	316	316	316	0	0	1	-360	360	-49.4649	3.5802	49.5310	-7.3803	0.0000	0.0000	0.0000	0.0000;
	115	78	0.001839	0.012603	0.022399	316	316	316	0	0	1	-360	360	-60.6075	-0.8593	60.6644	-1.4142	0.0000	0.0000	0.0000	0.0000;
	106	87	0.001715	0.009607	0.014239	301	301	301	0	0	1	-360	360	20.7703	34.6863	-20.7457	-36.2270	0.0000	0.0000	0.0000	0.0000;
	97	78	0.003409	0.024421	0.039969	246	246	246	0	0	1	-360	360	-64.3488	-0.4495	64.4679	-3.4468	0.0000	0.0000	0.0000	0.0000;
	116	77	0.001839	0.012603	0.02239	316	316	316	0	0	1	-360	360	-56.1399	-1.6524	56.1887	-0.6753	0.0000	0.0000	0.0000	0.0000;
	82	96	0.005702	0.041488	0.066172	404	404	404	0	0	1	-360	360	-26.8156	-5.3373	26.8506	-2.1793	0.0000	0.0000	0.0000	0.0000;
	123	117	0.004587	0.024628	0.036165	314	314	314	0	0	1	-360	360	-75.8947	-13.2012	76.1251	10.1817	0.0000	0.0000	0.0000	0.0000;
	123	109	0.002149	0.013327	0.022109	246	246	246	0	0	1	-360	360	-10.8550	-5.6291	10.8575	3.0544	0.0000	0.0000	0.0000	0.0000;
	99	70	0.000785	0.004876	0.00726	269	269	269	0	0	1	-360	360	8.0325	2.8519	-8.0320	-3.7140	0.0000	0.0000	0.0000	0.0000;
	100	69	0.000785	0.004876	0.007241	269	269	269	0	0	1	-360	360	10.3277	-0.8587	-10.3270	-0.0000	0.0000	0.0000	0.0000	0.0000;
	92	126	0.002413	0.027544	0.767968	831	831	831	0	0	1	-360	360	176.1085	-27.2797	-175.4013	-45.8782	0.0000	0.0000	0.0000	0.0000;
	81	126	0.002131	0.024319	0.67744	1386	1386	1386	0	0	1	-360	360	34.8338	-50.7657	-34.8042	-19.8798	0.0000	0.0000	0.0000	0.0000;
	121	114	0.000913	0.0104	0.289888	1150	1150	1150	0	0	1	-360	360	37.0439	66.5037	-36.9753	-96.7667	0.0000	0.0000	0.0000	0.0000;
	122	120	0.003119	0.035631	0.991072	831	831	831	0	0	1	-360	360	130.5204	-75.2046	-130.0148	-26.5010	0.0000	0.0000	0.0000	0.0000;
	114	127	0.000919	0.010512	0.292928	1150	1150	1150	0	0	1	-360	360	-66.9579	44.2329	67.0276	-74.3824	0.0000	0.0000	0.0000	0.0000;
	172	155	0.01545	0.073349	0.126614	427	427	427	0	0	1	-360	360	-199.2699	2.4888	204.7472	8.8733	0.0000	0.0000	0.0000	0.0000;
	173	154	0.01545	0.073349	0.126614	427	427	427	0	0	1	-360	360	-199.3147	2.5009	204.7945	8.8733	0.0000	0.0000	0.0000	0.0000;
	175	154	0.01457	0.07955	0.14007	324	324	324	0	0	1	-360	360	-70.1023	-8.6509	70.7163	-4.4983	0.0000	0.0000	0.0000	0.0000;
	176	155	0.01457	0.07955	0.14007	324	324	324	0	0	1	-360	360	-69.6748	-8.7462	70.2814	-4.4437	0.0000	0.0000	0.0000	0.0000;
	175	143	0.006031	0.04401	0.069793	316	316	316	0	0	1	-360	360	71.7439	0.8473	-71.4764	-6.9921	0.0000	0.0000	0.0000	0.0000;
	164	139	0.011031	0.08057	0.124127	404	404	404	0	0	1	-360	360	191.6342	-0.3731	-188.2257	10.7022	0.0000	0.0000	0.0000	0.0000;
	136	154	0.005831	0.04231	0.070664	383	383	383	0	0	1	-360	360	-104.4368	-3.9230	104.9775	-0.5155	0.0000	0.0000	0.0000	0.0000;
	169	172	0.01849	0.095599	0.159139	305	305	305	0	0	1	-360	360	-67.0594	24.1283	67.9557	-37.6338	0.0000	0.0000	0.0000	0.0000;
	151	173	0.010581	0.053	0.088475	385	385	385	0	0	1	-360	360	-96.0284	8.7510	96.9217	-14.1723	0.0000	0.0000	0.0000	0.0000;
	153	155	0.012521	0.091359	0.145394	453	453	453	0	0	1	-360	360	-169.5371	14.6509	172.6741	-8.9089	0.0000	0.0000	0.0000	0.0000;
	135	136	0.00506	0.036539	0.063598	305	305	305	0	0	1	-360	360	-46.9942	-7.1827	47.0903	0.4191	0.0000	0.0000	0.0000	0.0000;
	147	142	0.01043	0.077891	0.122065	383	383	383	0	0	1	-360	360	10.7438	1.3890	-10.7270	-15.5609	0.0000	0.0000	0.0000	0.0000;
	152	180	0.007702	0.056917	0.086733	316	316	316	0	0	1	-360	360	27.2581	36.8971	-27.0931	-45.5914	0.0000	0.0000	0.0000	0.0000;
	152	179	0.002256	0.016674	0.02541	333	333	333	0	0	1	-360	360	-166.3058	-41.0989	166.8700	42.2721	0.0000	0.0000	0.0000	0.0000;
	174	146	0.009147	0.089554	0.215196	246	246	246	0	0	1	-360	360	-121.0044	-18.4212	122.1783	4.8314	0.0000	0.0000	0.0000	0.0000;
	174	168	0.00244	0.01318	0.021296	341	341	341	0	0	0	-360	360	0.0000	0.0000	0.0000	0.0000	0.0000	0.0000	0.0000	0.0000;
	168	139	0.00355	0.02593	0.041237	404	404	404	0	0	1	-360	360	-98.2704	12.3647	98.5733	-14.9228	0.0000	0.0000	0.0000	0.0000;
	169	166	0.01312	0.076219	0.116644	324	324	324	0	0	1	-360	360	82.0611	-17.0265	-81.2855	8.0500	0.0000	0.0000	0.0000	0.0000;
	168	151	0.009341	0.05225	0.087701	305	305	305	0	0	1	-360	360	-24.0875	40.6699	24.3033	-49.4232	0.0000	0.0000	0.0000	0.0000;
	145	134	0.006141	0.032521	0.052456	356	356	356	0	0	1	-360	360	-213.4581	39.6922	215.9095	-32.9458	0.0000	0.0000	0.0000	0.0000;
	146	133	0.00438	0.03188	0.050723	453	453	453	0	0	1	-360	360	-221.7180	29.9898	223.5716	-22.5275	0.0000	0.0000	0.0000	0.0000;
	163	146	0.000479	0.00331	0.005711	404	404	404	0	0	1	-360	360	-87.7813	54.2581	87.8243	-54.6397	0.0000	0.0000	0.0000	0.0000;
	164	145	0.000479	0.00331	0.005711	404	404	404	0	0	1	-360	360	-93.3601	54.8357	93.4075	-55.1875	0.0000	0.0000	0.0000	0.0000;
	153	142	0.010539	0.076859	0.122355	316	316	316	0	0	1	-360	360	115.0884	-15.1353	-113.8882	9.6213	0.0000	0.0000	0.0000	0.0000;
	158	147	0.00469	0.034651	0.053821	383	383	383	0	0	1	-360	360	-141.3415	-17.8846	142.1628	17.6756	0.0000	0.0000	0.0000	0.0000;
	148	140	0.006469	0.0413	0.069212	383	383	383	0	0	1	-360	360	121.0796	8.1176	-120.2670	-11.0082	0.0000	0.0000	0.0000	0.0000;
	167	140	0.00105	0.007211	0.01028	316	316	316	0	0	1	-360	360	-38.9666	-7.9313	38.9809	6.8428	0.0000	0.0000	0.0000	0.0000;
	167	158	0.006099	0.044831	0.070954	316	316	316	0	0	1	-360	360	-7.6960	-2.8466	7.6992	-5.3140	0.0000	0.0000	0.0000	0.0000;
	175	135	0.002211	0.01655	0.024781	316	316	316	0	0	1	-360	360	30.5528	-13.7080	-30.5323	10.9686	0.0000	0.0000	0.0000	0.0000;
	177	176	0.005169	0.036979	0.058951	316	316	316	0	0	1	-360	360	71.6344	-14.1501	-71.4016	8.9443	0.0000	0.0000	0.0000	0.0000;
	180	172	0.002401	0.017789	0.027588	381	381	381	0	0	1	-360	360	-105.5940	-1.1932	105.8336	-0.1217	0.0000	0.0000	0.0000	0.0000;
	156	137	0.00274	0.02696	0.70592	977	977	977	0	0	1	-360	360	121.5874	-40.9797	-121.1825	-25.7230	0.0000	0.0000	0.0000	0.0000;
	162	138	0.0017	0.01733	0.45632	915	915	915	0	0	1	-360	360	120.1932	6.9011	-119.9359	-50.2339	0.0000	0.0000	0.0000	0.0000;
	160	161	0.00136	0.01574	0.433664	1469	1469	1469	0	0	1	-360	360	-129.6267	-29.2926	129.8542	-11.9178	0.0000	0.0000	0.0000	0.0000;
	170	150	0.00371	0.04326	1.18688	693	693	693	0	0	1	-360	360	-42.4049	-90.1488	42.5019	-31.6845	0.0000	0.0000	0.0000	0.0000;
	187	192	0.01882	0.137581	0.25381	299	299	299	0	0	1	-360	360	-62.6550	2.2413	63.3534	-25.6820	0.0000	0.0000	0.0000	0.0000;
	196	202	0.02756	0.16014	0.242871	269	269	269	0	0	1	-360	360	-52.0033	-0.0213	52.7195	-22.6976	0.0000	0.0000	0.0000	0.0000;
	188	207	0.01905	0.11132	0.167851	269	269	269	0	0	1	-360	360	6.9356	-25.0922	-6.8866	6.1010	0.0000	0.0000	0.0000	0.0000;
	190	193	0.00795	0.05919	0.090798	316	316	316	0	0	1	-360	360	-12.0142	-6.6269	12.0247	-3.4214	0.0000	0.0000	0.0000	0.0000;
	192	181	0.0018	0.021141	0.051498	633	633	633	0	0	1	-360	360	65.8722	12.5303	-65.7984	-17.3954	0.0000	0.0000	0.0000	0.0000;
...